Circuit: * Z:\home\mestrezen\Documents\graduacao\Per-odo-7-facul\TEORIA-COMUNICACOES\PROVAS\trabalho final\MOD-AM-DSB.asc

.OP point found by inspection.

Date: Thu Dec 09 19:53:55 2021
Total elapsed time: 0.232 seconds.

tnom = 27
temp = 27
method = modified trap
totiter = 57884
traniter = 57884
tranpoints = 20880
accept = 13723
rejected = 7157
matrix size = 7
fillins = 0
solver = Normal
Matrix Compiler1: 196 bytes object code size  0.2/0.2/[0.1]
Matrix Compiler2: off  [0.1]/0.2/0.2


